SSE_A_1200
amProtoss 04052110303D 1   1.00000     0.00000     0
Protoss beta amdserver
 37 37  0  0  0  0            999 V2000
   30.6840   65.1820    9.1680 Se  0  0  0  0  0  0  0  0  0  0  0  0
   27.4140   68.5290   12.5270 S   0  0  0  0  0  0  0  0  0  0  0  0
   26.9260   67.9790   13.8020 O   0  0  0  0  0  0  0  0  0  0  0  0
   26.5090   69.5250   11.9820 O   0  0  0  0  0  0  0  0  0  0  0  0
   28.7850   68.9930   12.6630 O   0  5  0  0  0  0  0  0  0  0  0  0
   27.8200   66.3320    7.4530 O   0  0  0  0  0  0  0  0  0  0  0  0
   25.6350   65.7220   12.6030 O   0  0  0  0  0  0  0  0  0  0  0  0
   33.8610   65.7800    7.2980 O   0  0  0  0  0  0  0  0  0  0  0  0
   28.3000   63.9150   10.6170 O   0  0  0  0  0  0  0  0  0  0  0  0
   31.5780   67.2200    5.8430 O   0  0  0  0  0  0  0  0  0  0  0  0
   27.5200   67.4710   11.4830 O   0  0  0  0  0  0  0  0  0  0  0  0
   32.3900   66.0910    9.2940 C   0  0  0  0  0  0  0  0  0  0  0  0
   29.7140   66.1150   10.5770 C   0  0  0  0  0  0  0  0  0  0  0  0
   29.1000   66.2220    6.8570 C   0  0  0  0  0  0  0  0  0  0  0  0
   26.9610   65.2520   12.7380 C   0  0  0  0  0  0  0  0  0  0  0  0
   30.3610   66.4340    7.6700 C   0  0  2  0  0  0  0  0  0  0  0  0
   32.7350   66.4140    7.8510 C   0  0  2  0  0  0  0  0  0  0  0  0
   28.3760   65.3760   10.5370 C   0  0  2  0  0  0  0  0  0  0  0  0
   31.6210   66.2070    6.8500 C   0  0  2  0  0  0  0  0  0  0  0  0
   27.5440   66.0360   11.5900 C   0  0  2  0  0  0  0  0  0  0  0  0
   27.7038   67.2527    7.8257 H   0  0  0  0  0  0  0  0  0  0  0  0
   25.5155   66.5462   13.1565 H   0  0  0  0  0  0  0  0  0  0  0  0
   34.5242   66.4706    7.0093 H   0  0  0  0  0  0  0  0  0  0  0  0
   29.1256   63.5159   10.2182 H   0  0  0  0  0  0  0  0  0  0  0  0
   32.5103   67.4736    5.5853 H   0  0  0  0  0  0  0  0  0  0  0  0
   32.9194   66.2988   10.1165 H   0  0  0  0  0  0  0  0  0  0  0  0
   29.6046   67.0867   10.3678 H   0  0  0  0  0  0  0  0  0  0  0  0
   30.1646   66.0136   11.4639 H   0  0  0  0  0  0  0  0  0  0  0  0
   29.1256   66.8902    6.1134 H   0  0  0  0  0  0  0  0  0  0  0  0
   29.1584   65.2986    6.4776 H   0  0  0  0  0  0  0  0  0  0  0  0
   27.0332   64.2637   12.6035 H   0  0  0  0  0  0  0  0  0  0  0  0
   27.3680   65.4993   13.6173 H   0  0  0  0  0  0  0  0  0  0  0  0
   30.3669   67.3700    8.0220 H   0  0  0  0  0  0  0  0  0  0  0  0
   32.9381   67.3930    7.8328 H   0  0  0  0  0  0  0  0  0  0  0  0
   27.9553   65.6226    9.6640 H   0  0  0  0  0  0  0  0  0  0  0  0
   31.6449   65.2896    6.4527 H   0  0  0  0  0  0  0  0  0  0  0  0
   26.7092   65.9409   11.0477 H   0  0  0  0  0  0  0  0  0  0  0  0
  1 12  2  0  0  0  0
  1 13  1  0  0  0  0
  1 16  1  0  0  0  0
  2  3  2  0  0  0  0
  2  4  2  0  0  0  0
  2  5  1  0  0  0  0
  2 11  1  0  0  0  0
  6 14  1  0  0  0  0
  7 15  1  0  0  0  0
  8 17  1  0  0  0  0
  9 18  1  0  0  0  0
 10 19  1  0  0  0  0
 11 20  1  0  0  0  0
 12 17  1  0  0  0  0
 13 18  1  0  0  0  0
 14 16  1  0  0  0  0
 15 20  1  0  0  0  0
 16 19  1  0  0  0  0
 17 19  1  0  0  0  0
 18 20  1  0  0  0  0
 20 37  1  0  0  0  0
  6 21  1  0  0  0  0
  7 22  1  0  0  0  0
  8 23  1  0  0  0  0
  9 24  1  0  0  0  0
 10 25  1  0  0  0  0
 12 26  1  0  0  0  0
 13 27  1  0  0  0  0
 13 28  1  0  0  0  0
 14 29  1  0  0  0  0
 14 30  1  0  0  0  0
 15 31  1  0  0  0  0
 15 32  1  0  0  0  0
 16 33  1  0  0  0  0
 17 34  1  0  0  0  0
 18 35  1  0  0  0  0
 19 36  1  0  0  0  0
M  CHG  1   5  -1
M  END
$$$$
MRD_A_1100
amProtoss 04052110303D 1   1.00000     0.00000     0
Protoss beta amdserver
 22 21  0  0  0  0            999 V2000
   17.5820   59.5070   13.7180 O   0  0  0  0  0  0  0  0  0  0  0  0
   16.8800   59.9380    9.8080 O   0  0  0  0  0  0  0  0  0  0  0  0
   18.3100   61.7040   13.2090 C   0  0  0  0  0  0  0  0  0  0  0  0
   14.7350   60.8850   10.2030 C   0  0  0  0  0  0  0  0  0  0  0  0
   16.7730   62.3150   10.1490 C   0  0  0  0  0  0  0  0  0  0  0  0
   16.3130   60.7140   12.0750 C   0  0  0  0  0  0  0  0  0  0  0  0
   17.6880   60.4270   12.6400 C   0  0  2  0  0  0  0  0  0  0  0  0
   16.1760   60.9770   10.5500 C   0  0  0  0  0  0  0  0  0  0  0  0
   17.1781   58.6533   13.3892 H   0  0  0  0  0  0  0  0  0  0  0  0
   17.8134   60.2406    9.6149 H   0  0  0  0  0  0  0  0  0  0  0  0
   18.4035   62.3825   12.4804 H   0  0  0  0  0  0  0  0  0  0  0  0
   17.7214   62.0686   13.9305 H   0  0  0  0  0  0  0  0  0  0  0  0
   19.2116   61.4954   13.5879 H   0  0  0  0  0  0  0  0  0  0  0  0
   14.2269   61.5887   10.6997 H   0  0  0  0  0  0  0  0  0  0  0  0
   14.6196   61.0224    9.2192 H   0  0  0  0  0  0  0  0  0  0  0  0
   14.3881   59.9820   10.4564 H   0  0  0  0  0  0  0  0  0  0  0  0
   16.3081   63.0492   10.6439 H   0  0  0  0  0  0  0  0  0  0  0  0
   17.7473   62.3262   10.3740 H   0  0  0  0  0  0  0  0  0  0  0  0
   16.6566   62.4505    9.1651 H   0  0  0  0  0  0  0  0  0  0  0  0
   15.9637   61.5238   12.5464 H   0  0  0  0  0  0  0  0  0  0  0  0
   15.7352   59.9271   12.2915 H   0  0  0  0  0  0  0  0  0  0  0  0
   18.2778   60.0493   11.9262 H   0  0  0  0  0  0  0  0  0  0  0  0
  1  7  1  0  0  0  0
  2  8  1  0  0  0  0
  3  7  1  0  0  0  0
  4  8  1  0  0  0  0
  5  8  1  0  0  0  0
  6  7  1  0  0  0  0
  6  8  1  0  0  0  0
  1  9  1  0  0  0  0
  2 10  1  0  0  0  0
  3 11  1  0  0  0  0
  3 12  1  0  0  0  0
  3 13  1  0  0  0  0
  4 14  1  0  0  0  0
  4 15  1  0  0  0  0
  4 16  1  0  0  0  0
  5 17  1  0  0  0  0
  5 18  1  0  0  0  0
  5 19  1  0  0  0  0
  6 20  1  0  0  0  0
  6 21  1  0  0  0  0
  7 22  1  0  0  0  0
M  END
$$$$
NAG_A_1046
amProtoss 04052110303D 1   1.00000     0.00000     0
Protoss beta amdserver
 29 29  0  0  0  0            999 V2000
   56.1890   41.5630   13.7860 O   0  0  0  0  0  0  0  0  0  0  0  0
   61.5930   46.3790   14.1340 O   0  0  0  0  0  0  0  0  0  0  0  0
   59.1770   40.8780   13.5240 O   0  0  0  0  0  0  0  0  0  0  0  0
   60.7220   42.8400   14.8500 O   0  0  0  0  0  0  0  0  0  0  0  0
   57.6930   44.0430   12.2350 O   0  0  0  0  0  0  0  0  0  0  0  0
   60.3260   45.2790   12.6450 N   0  0  0  0  0  0  0  0  0  0  0  0
   62.4460   46.1940   11.8950 C   0  0  0  0  0  0  0  0  0  0  0  0
   56.4930   41.9730   12.4560 C   0  0  0  0  0  0  0  0  0  0  0  0
   58.0790   44.7590   13.4090 C   0  0  2  0  0  0  0  0  0  0  0  0
   61.4100   45.9540   12.9850 C   0  0  0  0  0  0  0  0  0  0  0  0
   58.7530   42.2320   13.6040 C   0  0  1  0  0  0  0  0  0  0  0  0
   59.9760   43.1320   13.6780 C   0  0  1  0  0  0  0  0  0  0  0  0
   57.8760   42.5940   12.3730 C   0  0  2  0  0  0  0  0  0  0  0  0
   59.5740   44.6010   13.6770 C   0  0  1  0  0  0  0  0  0  0  0  0
   56.8604   40.8861   14.0878 H   0  0  0  0  0  0  0  0  0  0  0  0
   60.0309   45.2379   11.6904 H   0  0  0  0  0  0  0  0  0  0  0  0
   62.1312   45.7827   11.0396 H   0  0  0  0  0  0  0  0  0  0  0  0
   62.5718   47.1776   11.7654 H   0  0  0  0  0  0  0  0  0  0  0  0
   63.3153   45.7794   12.1642 H   0  0  0  0  0  0  0  0  0  0  0  0
   55.8153   42.6460   12.1596 H   0  0  0  0  0  0  0  0  0  0  0  0
   56.4570   41.1760   11.8531 H   0  0  0  0  0  0  0  0  0  0  0  0
   57.6147   44.3072   14.1707 H   0  0  0  0  0  0  0  0  0  0  0  0
   58.2106   42.3532   14.4353 H   0  0  0  0  0  0  0  0  0  0  0  0
   60.5518   42.9567   12.8795 H   0  0  0  0  0  0  0  0  0  0  0  0
   58.3285   42.2516   11.5496 H   0  0  0  0  0  0  0  0  0  0  0  0
   59.7946   45.0042   14.5651 H   0  0  0  0  0  0  0  0  0  0  0  0
   60.0492   40.7730   14.0018 H   0  0  0  0  0  0  0  0  0  0  0  0
   61.5242   43.4356   14.8915 H   0  0  0  0  0  0  0  0  0  0  0  0
   57.6570   46.1560   13.4550 R#  0  0  0  0  0  0  0  0  0  0  0  0
 12 24  1  0  0  0  0
 11 23  1  0  0  0  0
  9 22  1  0  0  0  0
  7 17  1  0  0  0  0
  6 16  1  0  0  0  0
  7 18  1  0  0  0  0
  7 19  1  0  0  0  0
  1 15  1  0  0  0  0
 12 14  1  0  0  0  0
 11 13  1  0  0  0  0
 11 12  1  0  0  0  0
  9 14  1  0  0  0  0
  8 21  1  0  0  0  0
  8 20  1  0  0  0  0
  8 13  1  0  0  0  0
  7 10  1  0  0  0  0
  4 28  1  0  0  0  0
  3 27  1  0  0  0  0
  6 14  1  0  0  0  0
  6 10  1  0  0  0  0
  5 13  1  0  0  0  0
  5  9  1  0  0  0  0
  4 12  1  0  0  0  0
  3 11  1  0  0  0  0
  2 10  2  0  0  0  0
  1  8  1  0  0  0  0
  9 29  1  0  0  0  0
 14 26  1  0  0  0  0
 13 25  1  0  0  0  0
M  RGP  1  29   1
M  END
$$$$
