SSE_A_1200
                    3D
 Schrodinger Suite 2020-3.
 37 37  0  0  1  0            999 V2000
   30.6840   65.1820    9.1680 Se  0  0  1  0  0  0
   27.4140   68.5290   12.5270 S   0  0  0  0  0  0
   26.9260   67.9790   13.8020 O   0  0  0  0  0  0
   26.5090   69.5250   11.9820 O   0  0  0  0  0  0
   28.7850   68.9930   12.6630 O   0  5  0  0  0  0
   27.8200   66.3320    7.4530 O   0  0  0  0  0  0
   25.6350   65.7220   12.6030 O   0  0  0  0  0  0
   33.8610   65.7800    7.2980 O   0  0  0  0  0  0
   28.3000   63.9150   10.6170 O   0  0  0  0  0  0
   31.5780   67.2200    5.8430 O   0  0  0  0  0  0
   27.5200   67.4710   11.4830 O   0  0  0  0  0  0
   32.3900   66.0910    9.2940 C   0  0  0  0  0  0
   29.7140   66.1150   10.5770 C   0  0  0  0  0  0
   29.1000   66.2220    6.8570 C   0  0  0  0  0  0
   26.9610   65.2520   12.7380 C   0  0  0  0  0  0
   30.3610   66.4340    7.6700 C   0  0  2  0  0  0
   32.7350   66.4140    7.8510 C   0  0  2  0  0  0
   28.3760   65.3760   10.5370 C   0  0  2  0  0  0
   31.6210   66.2070    6.8500 C   0  0  2  0  0  0
   27.5440   66.0360   11.5900 C   0  0  2  0  0  0
   27.7038   67.2527    7.8257 H   0  0  0  0  0  0
   25.5155   66.5462   13.1565 H   0  0  0  0  0  0
   34.5242   66.4706    7.0093 H   0  0  0  0  0  0
   29.1256   63.5159   10.2182 H   0  0  0  0  0  0
   32.5103   67.4736    5.5853 H   0  0  0  0  0  0
   32.9194   66.2988   10.1165 H   0  0  0  0  0  0
   29.6046   67.0867   10.3678 H   0  0  0  0  0  0
   30.1646   66.0136   11.4639 H   0  0  0  0  0  0
   29.1256   66.8902    6.1134 H   0  0  0  0  0  0
   29.1584   65.2986    6.4776 H   0  0  0  0  0  0
   27.0332   64.2637   12.6035 H   0  0  0  0  0  0
   27.3680   65.4993   13.6173 H   0  0  0  0  0  0
   30.3669   67.3700    8.0220 H   0  0  0  0  0  0
   32.9381   67.3930    7.8328 H   0  0  0  0  0  0
   27.9553   65.6226    9.6640 H   0  0  0  0  0  0
   31.6449   65.2896    6.4527 H   0  0  0  0  0  0
   26.7092   65.9409   11.0477 H   0  0  0  0  0  0
  1 12  2  0  0  0
  1 13  1  0  0  0
  1 16  1  0  0  0
  2  3  2  0  0  0
  2  4  2  0  0  0
  2  5  1  0  0  0
  2 11  1  0  0  0
  6 14  1  0  0  0
  6 21  1  0  0  0
  7 15  1  0  0  0
  7 22  1  0  0  0
  8 17  1  0  0  0
  8 23  1  0  0  0
  9 18  1  0  0  0
  9 24  1  0  0  0
 10 19  1  0  0  0
 10 25  1  0  0  0
 11 20  1  0  0  0
 12 17  1  0  0  0
 12 26  1  0  0  0
 13 18  1  0  0  0
 13 27  1  0  0  0
 13 28  1  0  0  0
 14 16  1  0  0  0
 14 29  1  0  0  0
 14 30  1  0  0  0
 15 20  1  0  0  0
 15 31  1  0  0  0
 15 32  1  0  0  0
 16 19  1  0  0  0
 16 33  1  0  0  0
 17 19  1  0  0  0
 17 34  1  0  0  0
 18 20  1  0  0  0
 18 35  1  0  0  0
 19 36  1  0  0  0
 20 37  1  0  0  0
M  CHG  1   5  -1
M  END
> <s_m_entry_id>
4

> <s_m_entry_name>
1tqv_lig.1

> <s_m_Source_Path>
/home/xlpan/localhome4/Study/plip_jcg/plip_rdkit/data/1tqv

> <s_m_Source_File>
1tqv_lig.sdf

> <i_m_Source_File_Index>
1

> <s_m_subgroup_title>
1tqv_lig

> <s_m_subgroupid>
1tqv_lig

> <b_m_subgroup_collapsed>
0

$$$$
